/*--------------------------------*- C++ -*----------------------------------*\ 
| =========                 |                                                 | 
| \\      /  F ield         | OpenFOAM: The Open Source CFD Toolbox           | 
|  \\    /   O peration     | Version:  3.0.x                                 | 
|   \\  /    A nd           | Web:      www.OpenFOAM.com                      | 
|    \\/     M anipulation  |                                                 | 
\*---------------------------------------------------------------------------*/ 
FoamFile                                                                        
{                                                                               
    version     2.0;                                                            
    format      ascii;                                                          
    class       dictionary;                                                     
    object      blockMeshDict;                                                  
}                                                                               
// * * * * * * * * * * * * * * * * * * * * * * * * * * * * * * * * * * * * * // 
//JD395 Aerofoil Meshing 
convertToMeters 1.000000; 

//for vertices
xmax	2.00;
zmax	0.01;
ymax	1.00;
chord	1.00;
nxmax	#calc "-$ymax";
nzmax 	#calc "-$zmax";
nymax	#calc "-$ymax";

xp14	0.2579; //0.259123 //p14,17 & p33,36	
yp14	0.1196; //0.0770744;
xp11	1.0084; //1.0043256; //p11,13,8,10 & p30,32,27,29
yp11	0.0594;//0.0306397;
xShift -0.06;//p18,37

//z-cells
	zc	10; //more than 1 for 3D 
//x-cells wake
	xcWake	220;
// x-grading wake
	xgWake	1.5;
	xgWakeInner	1.6;
	xgWakeTopBottom	9.517573275;
//y-grading wake
	ygWakeEdgeUpper	40.48608793;
	ygWakeEdgeLower	#calc "1/($ygWakeEdgeUpper)";
//y-cells universal
	yi	70; //inner
	yo	120; //outer
//y-grading
//outer 
	ygOuterUpper	3.987154041; //50.09786927
	ygOuterLower	#calc "1/($ygOuterUpper)";
//inner 
	ygInnerUpper	72.43257103; //2.393
	ygInnerLower	#calc "1/($ygInnerUpper)";

/***************************************************************************/

//semi-circle cells
	xcSemi	150; //100
//semi-circle
	gSemiCircleOuter	0.6; //this should be less than 1
	gSemiCircleInner	1.1;
//On the Airfoil
	gLeadingEdge	1.5;
//Trailing edge 
//Cells 
	xcTrailUpper	280; //keep lower and upper cells same for symmetric profile 
	xcTrailLower	#calc "$xcTrailUpper"; //change for assymetric profile
//On the Airfoil trailing edge
	gTrailingEdge	1.8; //greater than 1
	gTrailOuter	0.15;
	gTrailInner	1.1; //greater than 1

//NACA0012 coordinates and far-field	
vertices 
( 
//back patch
	( 0	0	0 )  //0
	( $xmax	$nymax	0 ) //1
	( $chord	$nymax	0 ) //2
	( 0	$nymax	0 ) //3
	( $nxmax	0	0 ) //4
	( 0	$ymax	0 ) //5
	( $chord	$ymax	0 ) //6
	( $xmax	$ymax	0 ) //7
	( $xmax	$yp11	0 ) //8
	( $xmax	0	0 ) //9
	( $xmax	#calc "-$yp11"	0 ) //10
	( $xp11	$yp11	0 ) //11
	( 1	0	0 ) //12
	( $xp11	#calc "-$yp11"	0 ) //13
	( $xp14 	$yp14 	0) //14
	( 0.259123 	0.059614	0) //( 0.25	0.059400352902375	0 ) //15
	( 0.259123 	-0.059614	0) //( 0.25	-0.059400352902375	0 ) //16
	( $xp14 #calc "-$yp14"	0 ) //17
	( $xShift	0	0 ) //18
	
	
//front patch
	( 0	0	$zmax ) //19
	( $xmax	$nymax	$zmax ) //20
	( $chord	$nymax	$zmax ) //21
	( 0	$nymax	$zmax ) //22
	( $nxmax	0	$zmax ) //23
	( 0	$ymax	$zmax ) //24
	( $chord	$ymax	$zmax ) //25
	( $xmax	$ymax	$zmax ) //26
	( $xmax	$yp11	$zmax ) //27
	( $xmax	0	$zmax ) //28
	( $xmax	#calc "-$yp11"	$zmax ) //29
	( $xp11	$yp11	$zmax ) //30
	( $chord	0	$zmax ) //31
	( $xp11	#calc "-$yp11"	$zmax ) //32
	( $xp14 	$yp14 	$zmax) //33
	( 0.259123 	0.059614	$zmax) //34
	( 0.259123 	-0.059614	$zmax) //35
	( $xp14	#calc "-$yp14"	$zmax)//36
	( $xShift	0	$zmax ) //37
	
); 

blocks 
( 
//outer blocks
hex (2 1 10 13 21 20 29 32) ($xcWake $yo $zc) edgeGrading  ($xgWakeTopBottom $xgWakeInner $xgWakeInner $xgWakeTopBottom $ygOuterLower $ygWakeEdgeLower $ygWakeEdgeLower $ygOuterLower 1 1 1 1 )  //0
hex ( 3 2 13 17 22 21 32 36 ) ( $xcTrailLower $yo $zc ) edgeGrading  ($gTrailOuter $gTrailInner $gTrailInner $gTrailOuter  $ygOuterLower $ygOuterLower $ygOuterLower $ygOuterLower  1 1 1 1 )  //1
hex (4 3 17 18 23 22 36 37) ($xcSemi $yo $zc) edgeGrading ($gSemiCircleOuter $gSemiCircleInner $gSemiCircleInner $gSemiCircleOuter $ygOuterLower $ygOuterLower $ygOuterLower $ygOuterLower 1 1 1 1)//2
hex (4 18 14 5 23 37 33 24) ($yo $xcSemi $zc) edgeGrading ($ygOuterLower $ygOuterLower $ygOuterLower $ygOuterLower $gSemiCircleOuter $gSemiCircleInner $gSemiCircleInner $gSemiCircleOuter 1 1 1 1)//3
hex (14 11 6 5 33 30 25 24) ($xcTrailUpper $yo $zc) edgeGrading  ( $gTrailInner $gTrailOuter $gTrailOuter $gTrailInner $ygOuterUpper $ygOuterUpper $ygOuterUpper $ygOuterUpper 1 1 1 1 )  //4
hex (11 8 7 6 30 27 26 25) ($xcWake $yo $zc ) edgeGrading ($xgWakeInner $xgWakeTopBottom $xgWakeTopBottom $xgWakeInner $ygOuterUpper $ygWakeEdgeUpper $ygWakeEdgeUpper $ygOuterUpper 1 1 1 1)//5

//inner blocks
//hex (12 9 8 11 31 28 27 30) ( $xcWake $yi $zc )  simpleGrading  ( $xgWake $ygInnerUpper 1 )  //6
hex (12 9 8 11 31 28 27 30) ($xcWake $yi $zc) edgeGrading  ( $xgWake $xgWakeInner $xgWakeInner $xgWake $ygInnerUpper 1 1 $ygInnerUpper 1 1 1 1 )  //6
hex (15 12 11 14 34 31 30 33) ($xcTrailUpper $yi $zc ) edgeGrading  ( $gTrailingEdge $gTrailInner $gTrailInner $gTrailingEdge  $ygInnerUpper $ygInnerUpper $ygInnerUpper $ygInnerUpper  1 1 1 1 )  //7
hex (0 15 14 18 19 34 33 37) ($xcSemi $yi $zc) edgeGrading ($gLeadingEdge $gSemiCircleInner $gSemiCircleInner $gLeadingEdge  $ygInnerUpper $ygInnerUpper $ygInnerUpper $ygInnerUpper 1 1 1 1)//8
hex (18 17 16 0 37 36 35 19) ($xcSemi $yi $zc) edgeGrading ($gSemiCircleInner $gLeadingEdge $gLeadingEdge $gSemiCircleInner  $ygInnerLower $ygInnerLower $ygInnerLower $ygInnerLower 1 1 1 1)  //9
hex  ( 17 13 12 16 36 32 31 35 ) ($xcTrailLower $yi $zc) edgeGrading ($gTrailInner $gTrailingEdge $gTrailingEdge $gTrailInner $ygInnerLower $ygInnerLower $ygInnerLower $ygInnerLower 1 1 1 1 )   //10
hex  ( 13 10 9 12 32 29 28 31 ) ( $xcWake $yi $zc)  edgeGrading  ( $xgWakeInner $xgWake $xgWake $xgWakeInner $ygInnerLower 1 1 $ygInnerLower 1 1 1 1 )  //11
);    

// Define the spline for curves
edges 
( 

    arc 4 5 (#calc "(-$ymax)/(sqrt(2.0))" #calc "($ymax)/(sqrt(2.0))" 0)
    arc 3 4 (#calc "(-$ymax)/(sqrt(2.0))" #calc "(-$ymax)/(sqrt(2.0))" 0)
    arc 23 24 (#calc "(-$ymax)/(sqrt(2.0))" #calc "($ymax)/(sqrt(2.0))" $zmax)
    arc 22 23 (#calc "(-$ymax)/(sqrt(2.0))" #calc "(-$ymax)/(sqrt(2.0))" $zmax)
    
    spline 11 14
(
//( 1.0084 0.0594 0 )
( 1.0076 0.0595 0 )
( 1.0064 0.0597 0 )
( 1.0046 0.06 0 )
( 1.0024 0.0603 0 )
( 0.9997 0.0607 0 )
( 0.9965 0.0611 0 )
( 0.9927 0.0617 0 )
( 0.9886 0.0623 0 )
( 0.9839 0.0629 0 )
( 0.9788 0.0636 0 )
( 0.9731 0.0644 0 )
( 0.9671 0.0653 0 )
( 0.9605 0.0662 0 )
( 0.9536 0.0671 0 )
( 0.9461 0.0681 0 )
( 0.9383 0.0692 0 )
( 0.93 0.0703 0 )
( 0.9213 0.0714 0 )
( 0.9122 0.0726 0 )
( 0.9027 0.0738 0 )
( 0.8928 0.0751 0 )
( 0.8825 0.0763 0 )
( 0.8718 0.0777 0 )
( 0.8608 0.079 0 )
( 0.8494 0.0804 0 )
( 0.8377 0.0818 0 )
( 0.8256 0.0832 0 )
( 0.8133 0.0846 0 )
( 0.8006 0.086 0 )
( 0.7876 0.0875 0 )
( 0.7744 0.0889 0 )
( 0.7609 0.0904 0 )
( 0.7471 0.0918 0 )
( 0.7331 0.0933 0 )
( 0.7189 0.0947 0 )
( 0.7045 0.0962 0 )
( 0.6898 0.0976 0 )
( 0.675 0.099 0 )
( 0.66 0.1004 0 )
( 0.6449 0.1018 0 )
( 0.6296 0.1032 0 )
( 0.6141 0.1045 0 )
( 0.5986 0.1058 0 )
( 0.583 0.1071 0 )
( 0.5672 0.1083 0 )
( 0.5515 0.1095 0 )
( 0.5356 0.1106 0 )
( 0.5197 0.1117 0 )
( 0.5038 0.1127 0 )
( 0.4879 0.1137 0 )
( 0.472 0.1147 0 )
( 0.4561 0.1155 0 )
( 0.4402 0.1163 0 )
( 0.4244 0.1171 0 )
( 0.4087 0.1177 0 )
( 0.393 0.1183 0 )
( 0.3774 0.1188 0 )
( 0.362 0.1192 0 )
( 0.3466 0.1195 0 )
( 0.3314 0.1198 0 )
( 0.3164 0.1199 0 )
( 0.3015 0.12 0 )
( 0.2868 0.12 0 )
( 0.2722 0.1198 0 )
//( 0.2579 0.1196 0 )
)
//JD395 Aerofoil Meshing 
spline 30 33
(
//( 1.0084 0.0594 $zmax )
( 1.0076 0.0595 $zmax )
( 1.0064 0.0597 $zmax )
( 1.0046 0.06 $zmax )
( 1.0024 0.0603 $zmax )
( 0.9997 0.0607 $zmax )
( 0.9965 0.0611 $zmax )
( 0.9927 0.0617 $zmax )
( 0.9886 0.0623 $zmax )
( 0.9839 0.0629 $zmax )
( 0.9788 0.0636 $zmax )
( 0.9731 0.0644 $zmax )
( 0.9671 0.0653 $zmax )
( 0.9605 0.0662 $zmax )
( 0.9536 0.0671 $zmax )
( 0.9461 0.0681 $zmax )
( 0.9383 0.0692 $zmax )
( 0.93 0.0703 $zmax )
( 0.9213 0.0714 $zmax )
( 0.9122 0.0726 $zmax )
( 0.9027 0.0738 $zmax )
( 0.8928 0.0751 $zmax )
( 0.8825 0.0763 $zmax )
( 0.8718 0.0777 $zmax )
( 0.8608 0.079 $zmax )
( 0.8494 0.0804 $zmax )
( 0.8377 0.0818 $zmax )
( 0.8256 0.0832 $zmax )
( 0.8133 0.0846 $zmax )
( 0.8006 0.086 $zmax )
( 0.7876 0.0875 $zmax )
( 0.7744 0.0889 $zmax )
( 0.7609 0.0904 $zmax )
( 0.7471 0.0918 $zmax )
( 0.7331 0.0933 $zmax )
( 0.7189 0.0947 $zmax )
( 0.7045 0.0962 $zmax )
( 0.6898 0.0976 $zmax )
( 0.675 0.099 $zmax )
( 0.66 0.1004 $zmax )
( 0.6449 0.1018 $zmax )
( 0.6296 0.1032 $zmax )
( 0.6141 0.1045 $zmax )
( 0.5986 0.1058 $zmax )
( 0.583 0.1071 $zmax )
( 0.5672 0.1083 $zmax )
( 0.5515 0.1095 $zmax )
( 0.5356 0.1106 $zmax )
( 0.5197 0.1117 $zmax )
( 0.5038 0.1127 $zmax )
( 0.4879 0.1137 $zmax )
( 0.472 0.1147 $zmax )
( 0.4561 0.1155 $zmax )
( 0.4402 0.1163 $zmax )
( 0.4244 0.1171 $zmax )
( 0.4087 0.1177 $zmax )
( 0.393 0.1183 $zmax )
( 0.3774 0.1188 $zmax )
( 0.362 0.1192 $zmax )
( 0.3466 0.1195 $zmax )
( 0.3314 0.1198 $zmax )
( 0.3164 0.1199 $zmax )
( 0.3015 0.12 $zmax )
( 0.2868 0.12 $zmax )
( 0.2722 0.1198 $zmax )
//( 0.2579 0.1196 $zmax )
)

spline 14 18
(
( 0.2438 0.1193 0 )
( 0.2299 0.1188 0 )
( 0.2163 0.1183 0 )
( 0.2029 0.1176 0 )
( 0.1898 0.1169 0 )
( 0.1769 0.116 0 )
( 0.1644 0.115 0 )
( 0.1521 0.1139 0 )
( 0.1401 0.1128 0 )
( 0.1285 0.1114 0 )
( 0.1171 0.11 0 )
( 0.1061 0.1085 0 )
( 0.0954 0.1069 0 )
( 0.085 0.1051 0 )
( 0.075 0.1033 0 )
( 0.0653 0.1013 0 )
( 0.0559 0.0992 0 )
( 0.0468 0.097 0 )
( 0.0381 0.0946 0 )
( 0.0296 0.092 0 )
( 0.0214 0.0894 0 )
( 0.0135 0.0865 0 )
( 0.0058 0.0833 0 )
( -0.0017 0.0799 0 )
( -0.0091 0.0761 0 )
( -0.0163 0.0719 0 )
( -0.0235 0.067 0 )
( -0.0306 0.0614 0 )
( -0.0376 0.0547 0 )
( -0.0443 0.0467 0 )
( -0.0505 0.0371 0 )
( -0.0557 0.0259 0 )
( -0.0591 0.0133 0 )
//( -0.0602 0 0 )
)

spline 33 37
(
( 0.2438 0.1193 $zmax )
( 0.2299 0.1188 $zmax )
( 0.2163 0.1183 $zmax )
( 0.2029 0.1176 $zmax )
( 0.1898 0.1169 $zmax )
( 0.1769 0.116 $zmax )
( 0.1644 0.115 $zmax )
( 0.1521 0.1139 $zmax )
( 0.1401 0.1128 $zmax )
( 0.1285 0.1114 $zmax )
( 0.1171 0.11 $zmax )
( 0.1061 0.1085 $zmax )
( 0.0954 0.1069 $zmax )
( 0.085 0.1051 $zmax )
( 0.075 0.1033 $zmax )
( 0.0653 0.1013 $zmax )
( 0.0559 0.0992 $zmax )
( 0.0468 0.097 $zmax )
( 0.0381 0.0946 $zmax )
( 0.0296 0.092 $zmax )
( 0.0214 0.0894 $zmax )
( 0.0135 0.0865 $zmax )
( 0.0058 0.0833 $zmax )
( -0.0017 0.0799 $zmax )
( -0.0091 0.0761 $zmax )
( -0.0163 0.0719 $zmax )
( -0.0235 0.067 $zmax )
( -0.0306 0.0614 $zmax )
( -0.0376 0.0547 $zmax )
( -0.0443 0.0467 $zmax )
( -0.0505 0.0371 $zmax )
( -0.0557 0.0259 $zmax )
( -0.0591 0.0133 $zmax )
//( -0.0602 0 $zmax )
)

spline 18 17
(
//( -0.0602 0 0 )
( -0.0591 -0.0133 0 )
( -0.0557 -0.0259 0 )
( -0.0505 -0.0371 0 )
( -0.0443 -0.0467 0 )
( -0.0376 -0.0547 0 )
( -0.0306 -0.0614 0 )
( -0.0235 -0.067 0 )
( -0.0163 -0.0719 0 )
( -0.0091 -0.0761 0 )
( -0.0017 -0.0799 0 )
( 0.0058 -0.0833 0 )
( 0.0135 -0.0865 0 )
( 0.0214 -0.0894 0 )
( 0.0296 -0.092 0 )
( 0.0381 -0.0946 0 )
( 0.0468 -0.097 0 )
( 0.0559 -0.0992 0 )
( 0.0653 -0.1013 0 )
( 0.075 -0.1033 0 )
( 0.085 -0.1051 0 )
( 0.0954 -0.1069 0 )
( 0.1061 -0.1085 0 )
( 0.1171 -0.11 0 )
( 0.1285 -0.1114 0 )
( 0.1401 -0.1128 0 )
( 0.1521 -0.1139 0 )
( 0.1644 -0.115 0 )
( 0.1769 -0.116 0 )
( 0.1898 -0.1169 0 )
( 0.2029 -0.1176 0 )
( 0.2163 -0.1183 0 )
( 0.2299 -0.1188 0 )
( 0.2438 -0.1193 0 )
)

spline 37 36
(
//( -0.0602 0 $zmax )
( -0.0591 -0.0133 $zmax )
( -0.0557 -0.0259 $zmax )
( -0.0505 -0.0371 $zmax )
( -0.0443 -0.0467 $zmax )
( -0.0376 -0.0547 $zmax )
( -0.0306 -0.0614 $zmax )
( -0.0235 -0.067 $zmax )
( -0.0163 -0.0719 $zmax )
( -0.0091 -0.0761 $zmax )
( -0.0017 -0.0799 $zmax )
( 0.0058 -0.0833 $zmax )
( 0.0135 -0.0865 $zmax )
( 0.0214 -0.0894 $zmax )
( 0.0296 -0.092 $zmax )
( 0.0381 -0.0946 $zmax )
( 0.0468 -0.097 $zmax )
( 0.0559 -0.0992 $zmax )
( 0.0653 -0.1013 $zmax )
( 0.075 -0.1033 $zmax )
( 0.085 -0.1051 $zmax )
( 0.0954 -0.1069 $zmax )
( 0.1061 -0.1085 $zmax )
( 0.1171 -0.11 $zmax )
( 0.1285 -0.1114 $zmax )
( 0.1401 -0.1128 $zmax )
( 0.1521 -0.1139 $zmax )
( 0.1644 -0.115 $zmax )
( 0.1769 -0.116 $zmax )
( 0.1898 -0.1169 $zmax )
( 0.2029 -0.1176 $zmax )
( 0.2163 -0.1183 $zmax )
( 0.2299 -0.1188 $zmax )
( 0.2438 -0.1193 $zmax )
)


spline 17 13
(
//( 0.2579 -0.1196 0 )
( 0.2722 -0.1198 0 )
( 0.2868 -0.12 0 )
( 0.3015 -0.12 0 )
( 0.3164 -0.1199 0 )
( 0.3314 -0.1198 0 )
( 0.3466 -0.1195 0 )
( 0.362 -0.1192 0 )
( 0.3774 -0.1188 0 )
( 0.393 -0.1183 0 )
( 0.4087 -0.1177 0 )
( 0.4244 -0.1171 0 )
( 0.4402 -0.1163 0 )
( 0.4561 -0.1155 0 )
( 0.472 -0.1147 0 )
( 0.4879 -0.1137 0 )
( 0.5038 -0.1127 0 )
( 0.5197 -0.1117 0 )
( 0.5356 -0.1106 0 )
( 0.5515 -0.1095 0 )
( 0.5672 -0.1083 0 )
( 0.583 -0.1071 0 )
( 0.5986 -0.1058 0 )
( 0.6141 -0.1045 0 )
( 0.6296 -0.1032 0 )
( 0.6449 -0.1018 0 )
( 0.66 -0.1004 0 )
( 0.675 -0.099 0 )
( 0.6898 -0.0976 0 )
( 0.7045 -0.0962 0 )
( 0.7189 -0.0947 0 )
( 0.7331 -0.0933 0 )
( 0.7471 -0.0918 0 )
( 0.7609 -0.0904 0 )
( 0.7744 -0.0889 0 )
( 0.7876 -0.0875 0 )
( 0.8006 -0.086 0 )
( 0.8133 -0.0846 0 )
( 0.8256 -0.0832 0 )
( 0.8377 -0.0818 0 )
( 0.8494 -0.0804 0 )
( 0.8608 -0.079 0 )
( 0.8718 -0.0777 0 )
( 0.8825 -0.0763 0 )
( 0.8928 -0.0751 0 )
( 0.9027 -0.0738 0 )
( 0.9122 -0.0726 0 )
( 0.9213 -0.0714 0 )
( 0.93 -0.0703 0 )
( 0.9383 -0.0692 0 )
( 0.9461 -0.0681 0 )
( 0.9536 -0.0671 0 )
( 0.9605 -0.0662 0 )
( 0.9671 -0.0653 0 )
( 0.9731 -0.0644 0 )
( 0.9788 -0.0636 0 )
( 0.9839 -0.0629 0 )
( 0.9886 -0.0623 0 )
( 0.9927 -0.0617 0 )
( 0.9965 -0.0611 0 )
( 0.9997 -0.0607 0 )
( 1.0024 -0.0603 0 )
( 1.0046 -0.06 0 )
( 1.0064 -0.0597 0 )
( 1.0076 -0.0595 0 )
//( 1.0084 -0.0594 0 )
)

spline 36 32
(
//( 0.2579 -0.1196 $zmax )
( 0.2722 -0.1198 $zmax )
( 0.2868 -0.12 $zmax )
( 0.3015 -0.12 $zmax )
( 0.3164 -0.1199 $zmax )
( 0.3314 -0.1198 $zmax )
( 0.3466 -0.1195 $zmax )
( 0.362 -0.1192 $zmax )
( 0.3774 -0.1188 $zmax )
( 0.393 -0.1183 $zmax )
( 0.4087 -0.1177 $zmax )
( 0.4244 -0.1171 $zmax )
( 0.4402 -0.1163 $zmax )
( 0.4561 -0.1155 $zmax )
( 0.472 -0.1147 $zmax )
( 0.4879 -0.1137 $zmax )
( 0.5038 -0.1127 $zmax )
( 0.5197 -0.1117 $zmax )
( 0.5356 -0.1106 $zmax )
( 0.5515 -0.1095 $zmax )
( 0.5672 -0.1083 $zmax )
( 0.583 -0.1071 $zmax )
( 0.5986 -0.1058 $zmax )
( 0.6141 -0.1045 $zmax )
( 0.6296 -0.1032 $zmax )
( 0.6449 -0.1018 $zmax )
( 0.66 -0.1004 $zmax )
( 0.675 -0.099 $zmax )
( 0.6898 -0.0976 $zmax )
( 0.7045 -0.0962 $zmax )
( 0.7189 -0.0947 $zmax )
( 0.7331 -0.0933 $zmax )
( 0.7471 -0.0918 $zmax )
( 0.7609 -0.0904 $zmax )
( 0.7744 -0.0889 $zmax )
( 0.7876 -0.0875 $zmax )
( 0.8006 -0.086 $zmax )
( 0.8133 -0.0846 $zmax )
( 0.8256 -0.0832 $zmax )
( 0.8377 -0.0818 $zmax )
( 0.8494 -0.0804 $zmax )
( 0.8608 -0.079 $zmax )
( 0.8718 -0.0777 $zmax )
( 0.8825 -0.0763 $zmax )
( 0.8928 -0.0751 $zmax )
( 0.9027 -0.0738 $zmax )
( 0.9122 -0.0726 $zmax )
( 0.9213 -0.0714 $zmax )
( 0.93 -0.0703 $zmax )
( 0.9383 -0.0692 $zmax )
( 0.9461 -0.0681 $zmax )
( 0.9536 -0.0671 $zmax )
( 0.9605 -0.0662 $zmax )
( 0.9671 -0.0653 $zmax )
( 0.9731 -0.0644 $zmax )
( 0.9788 -0.0636 $zmax )
( 0.9839 -0.0629 $zmax )
( 0.9886 -0.0623 $zmax )
( 0.9927 -0.0617 $zmax )
( 0.9965 -0.0611 $zmax )
( 0.9997 -0.0607 $zmax )
( 1.0024 -0.0603 $zmax )
( 1.0046 -0.06 $zmax )
( 1.0064 -0.0597 $zmax )
( 1.0076 -0.0595 $zmax )
//( 1.0084 -0.0594 $zmax )
)
   
//Airfoil-coordinates

spline 12 15
(
	( 0.999753 0.000036 0 )
	( 0.999013 0.000143 0 )
	( 0.997781 0.000322 0 )
	( 0.996057 0.000572 0 )
	( 0.993844 0.000891 0 )
	( 0.991144 0.00128 0 )
	( 0.987958 0.001737 0 )
	( 0.984292 0.00226 0 )
	( 0.980147 0.002849 0 )
	( 0.975528 0.003501 0 )
	( 0.97044 0.004216 0 )
	( 0.964888 0.00499 0 )
	( 0.958877 0.005822 0 )
	( 0.952414 0.00671 0 )
	( 0.945503 0.007651 0 )
	( 0.938153 0.008643 0 )
	( 0.930371 0.009684 0 )
	( 0.922164 0.01077 0 )
	( 0.91354 0.0119 0 )
	( 0.904508 0.013071 0 )
	( 0.895078 0.01428 0 )
	( 0.885257 0.015523 0 )
	( 0.875056 0.0168 0 )
	( 0.864484 0.018106 0 )
	( 0.853553 0.019438 0 )
	( 0.842274 0.020795 0 )
	( 0.830656 0.022173 0 )
	( 0.818712 0.023569 0 )
	( 0.806454 0.024981 0 )
	( 0.793893 0.026405 0 )
	( 0.781042 0.027838 0 )
	( 0.767913 0.029279 0 )
	( 0.754521 0.030723 0 )
	( 0.740877 0.032168 0 )
	( 0.726995 0.03361 0 )
	( 0.71289 0.035048 0 )
	( 0.698574 0.036478 0 )
	( 0.684062 0.037896 0 )
	( 0.669369 0.0393 0 )
	( 0.654508 0.040686 0 )
	( 0.639496 0.042052 0 )
	( 0.624345 0.043394 0 )
	( 0.609072 0.044708 0 )
	( 0.593691 0.045992 0 )
	( 0.578217 0.047242 0 )
	( 0.562667 0.048455 0 )
	( 0.547054 0.049626 0 )
	( 0.531395 0.050754 0 )
	( 0.515705 0.051833 0 )
	( 0.5 0.052862 0 )
	( 0.484295 0.053835 0 )
	( 0.468605 0.054749 0 )
	( 0.452946 0.055602 0 )
	( 0.437333 0.05639 0 )
	( 0.421783 0.057108 0 )
	( 0.406309 0.057755 0 )
	( 0.390928 0.058326 0 )
	( 0.375655 0.058819 0 )
	( 0.360504 0.05923 0 )
	( 0.345492 0.059557 0 )
	( 0.330631 0.059797 0 )
	( 0.315938 0.059947 0 )
	( 0.301426 0.060006 0 )
	( 0.28711 0.059971 0 )
	( 0.273005 0.059841 0 )
	//( 0.259123 0.059614 0 )
)

spline 31 34
(
	( 0.999753 0.000036 $zmax )
	( 0.999013 0.000143 $zmax )
	( 0.997781 0.000322 $zmax )
	( 0.996057 0.000572 $zmax )
	( 0.993844 0.000891 $zmax )
	( 0.991144 0.00128 $zmax )
	( 0.987958 0.001737 $zmax )
	( 0.984292 0.00226 $zmax )
	( 0.980147 0.002849 $zmax )
	( 0.975528 0.003501 $zmax )
	( 0.97044 0.004216 $zmax )
	( 0.964888 0.00499 $zmax )
	( 0.958877 0.005822 $zmax )
	( 0.952414 0.00671 $zmax )
	( 0.945503 0.007651 $zmax )
	( 0.938153 0.008643 $zmax )
	( 0.930371 0.009684 $zmax )
	( 0.922164 0.01077 $zmax )
	( 0.91354 0.0119 $zmax )
	( 0.904508 0.013071 $zmax )
	( 0.895078 0.01428 $zmax )
	( 0.885257 0.015523 $zmax )
	( 0.875056 0.0168 $zmax )
	( 0.864484 0.018106 $zmax )
	( 0.853553 0.019438 $zmax )
	( 0.842274 0.020795 $zmax )
	( 0.830656 0.022173 $zmax )
	( 0.818712 0.023569 $zmax )
	( 0.806454 0.024981 $zmax )
	( 0.793893 0.026405 $zmax )
	( 0.781042 0.027838 $zmax )
	( 0.767913 0.029279 $zmax )
	( 0.754521 0.030723 $zmax )
	( 0.740877 0.032168 $zmax )
	( 0.726995 0.03361 $zmax )
	( 0.71289 0.035048 $zmax )
	( 0.698574 0.036478 $zmax )
	( 0.684062 0.037896 $zmax )
	( 0.669369 0.0393 $zmax )
	( 0.654508 0.040686 $zmax )
	( 0.639496 0.042052 $zmax )
	( 0.624345 0.043394 $zmax )
	( 0.609072 0.044708 $zmax )
	( 0.593691 0.045992 $zmax )
	( 0.578217 0.047242 $zmax )
	( 0.562667 0.048455 $zmax )
	( 0.547054 0.049626 $zmax )
	( 0.531395 0.050754 $zmax )
	( 0.515705 0.051833 $zmax )
	( 0.5 0.052862 $zmax )
	( 0.484295 0.053835 $zmax )
	( 0.468605 0.054749 $zmax )
	( 0.452946 0.055602 $zmax )
	( 0.437333 0.05639 $zmax )
	( 0.421783 0.057108 $zmax )
	( 0.406309 0.057755 $zmax )
	( 0.390928 0.058326 $zmax )
	( 0.375655 0.058819 $zmax )
	( 0.360504 0.05923 $zmax )
	( 0.345492 0.059557 $zmax )
	( 0.330631 0.059797 $zmax )
	( 0.315938 0.059947 $zmax )
	( 0.301426 0.060006 $zmax )
	( 0.28711 0.059971 $zmax )
	( 0.273005 0.059841 $zmax )
	//( 0.259123 0.059614 $zmax )
)

spline 15 0
(
	( 0.245479 0.059288 0 )
	( 0.232087 0.058863 0 )
	( 0.218958 0.058338 0 )
	( 0.206107 0.057712 0 )
	( 0.193546 0.056986 0 )
	( 0.181288 0.056159 0 )
	( 0.169344 0.055232 0 )
	( 0.157726 0.054206 0 )
	( 0.146447 0.053083 0 )
	( 0.135516 0.051862 0 )
	( 0.124944 0.050546 0 )
	( 0.114743 0.049138 0 )
	( 0.104922 0.047638 0 )
	( 0.095492 0.046049 0 )
	( 0.08646 0.044374 0 )
	( 0.077836 0.042615 0 )
	( 0.069629 0.040776 0 )
	( 0.061847 0.038859 0 )
	( 0.054497 0.036867 0 )
	( 0.047586 0.034803 0 )
	( 0.041123 0.032671 0 )
	( 0.035112 0.030473 0 )
	( 0.02956 0.028213 0 )
	( 0.024472 0.025893 0 )
	( 0.019853 0.023517 0 )
	( 0.015708 0.021088 0 )
	( 0.012042 0.018607 0 )
	( 0.008856 0.016078 0 )
	( 0.006156 0.013503 0 )
	( 0.003943 0.010884 0 )
	( 0.002219 0.008223 0 )
	( 0.000987 0.005521 0 )
	( 0.000247 0.002779 0 )
	//( 0 0 0 )
)
spline 34 19
(
	( 0.245479 0.059288 $zmax )
	( 0.232087 0.058863 $zmax )
	( 0.218958 0.058338 $zmax )
	( 0.206107 0.057712 $zmax )
	( 0.193546 0.056986 $zmax )
	( 0.181288 0.056159 $zmax )
	( 0.169344 0.055232 $zmax )
	( 0.157726 0.054206 $zmax )
	( 0.146447 0.053083 $zmax )
	( 0.135516 0.051862 $zmax )
	( 0.124944 0.050546 $zmax )
	( 0.114743 0.049138 $zmax )
	( 0.104922 0.047638 $zmax )
	( 0.095492 0.046049 $zmax )
	( 0.08646 0.044374 $zmax )
	( 0.077836 0.042615 $zmax )
	( 0.069629 0.040776 $zmax )
	( 0.061847 0.038859 $zmax )
	( 0.054497 0.036867 $zmax )
	( 0.047586 0.034803 $zmax )
	( 0.041123 0.032671 $zmax )
	( 0.035112 0.030473 $zmax )
	( 0.02956 0.028213 $zmax )
	( 0.024472 0.025893 $zmax )
	( 0.019853 0.023517 $zmax )
	( 0.015708 0.021088 $zmax )
	( 0.012042 0.018607 $zmax )
	( 0.008856 0.016078 $zmax )
	( 0.006156 0.013503 $zmax )
	( 0.003943 0.010884 $zmax )
	( 0.002219 0.008223 $zmax )
	( 0.000987 0.005521 $zmax )
	( 0.000247 0.002779 $zmax )
	//( 0 0 $zmax )

)

spline 0 16
(
( 0.000247 -0.002779 0 )
( 0.000987 -0.005521 0 )
( 0.002219 -0.008223 0 )
( 0.003943 -0.010884 0 )
( 0.006156 -0.013503 0 )
( 0.008856 -0.016078 0 )
( 0.012042 -0.018607 0 )
( 0.015708 -0.021088 0 )
( 0.019853 -0.023517 0 )
( 0.024472 -0.025893 0 )
( 0.02956 -0.028213 0 )
( 0.035112 -0.030473 0 )
( 0.041123 -0.032671 0 )
( 0.047586 -0.034803 0 )
( 0.054497 -0.036867 0 )
( 0.061847 -0.038859 0 )
( 0.069629 -0.040776 0 )
( 0.077836 -0.042615 0 )
( 0.08646 -0.044374 0 )
( 0.095492 -0.046049 0 )
( 0.104922 -0.047638 0 )
( 0.114743 -0.049138 0 )
( 0.124944 -0.050546 0 )
( 0.135516 -0.051862 0 )
( 0.146447 -0.053083 0 )
( 0.157726 -0.054206 0 )
( 0.169344 -0.055232 0 )
( 0.181288 -0.056159 0 )
( 0.193546 -0.056986 0 )
( 0.206107 -0.057712 0 )
( 0.218958 -0.058338 0 )
( 0.232087 -0.058863 0 )
( 0.245479 -0.059288 0 )
)
spline 19 35
(
( 0.000247 -0.002779 $zmax )
( 0.000987 -0.005521 $zmax )
( 0.002219 -0.008223 $zmax )
( 0.003943 -0.010884 $zmax )
( 0.006156 -0.013503 $zmax )
( 0.008856 -0.016078 $zmax )
( 0.012042 -0.018607 $zmax )
( 0.015708 -0.021088 $zmax )
( 0.019853 -0.023517 $zmax )
( 0.024472 -0.025893 $zmax )
( 0.02956 -0.028213 $zmax )
( 0.035112 -0.030473 $zmax )
( 0.041123 -0.032671 $zmax )
( 0.047586 -0.034803 $zmax )
( 0.054497 -0.036867 $zmax )
( 0.061847 -0.038859 $zmax )
( 0.069629 -0.040776 $zmax )
( 0.077836 -0.042615 $zmax )
( 0.08646 -0.044374 $zmax )
( 0.095492 -0.046049 $zmax )
( 0.104922 -0.047638 $zmax )
( 0.114743 -0.049138 $zmax )
( 0.124944 -0.050546 $zmax )
( 0.135516 -0.051862 $zmax )
( 0.146447 -0.053083 $zmax )
( 0.157726 -0.054206 $zmax )
( 0.169344 -0.055232 $zmax )
( 0.181288 -0.056159 $zmax )
( 0.193546 -0.056986 $zmax )
( 0.206107 -0.057712 $zmax )
( 0.218958 -0.058338 $zmax )
( 0.232087 -0.058863 $zmax )
( 0.245479 -0.059288 $zmax )
)
   
spline 16 12
(
//( 0.259123 -0.059614 0 )
( 0.273005 -0.059841 0 )
( 0.28711 -0.059971 0 )
( 0.301426 -0.060006 0 )
( 0.315938 -0.059947 0 )
( 0.330631 -0.059797 0 )
( 0.345492 -0.059557 0 )
( 0.360504 -0.05923 0 )
( 0.375655 -0.058819 0 )
( 0.390928 -0.058326 0 )
( 0.406309 -0.057755 0 )
( 0.421783 -0.057108 0 )
( 0.437333 -0.05639 0 )
( 0.452946 -0.055602 0 )
( 0.468605 -0.054749 0 )
( 0.484295 -0.053835 0 )
( 0.5 -0.052862 0 )
( 0.515705 -0.051833 0 )
( 0.531395 -0.050754 0 )
( 0.547054 -0.049626 0 )
( 0.562667 -0.048455 0 )
( 0.578217 -0.047242 0 )
( 0.593691 -0.045992 0 )
( 0.609072 -0.044708 0 )
( 0.624345 -0.043394 0 )
( 0.639496 -0.042052 0 )
( 0.654508 -0.040686 0 )
( 0.669369 -0.0393 0 )
( 0.684062 -0.037896 0 )
( 0.698574 -0.036478 0 )
( 0.71289 -0.035048 0 )
( 0.726995 -0.03361 0 )
( 0.740877 -0.032168 0 )
( 0.754521 -0.030723 0 )
( 0.767913 -0.029279 0 )
( 0.781042 -0.027838 0 )
( 0.793893 -0.026405 0 )
( 0.806454 -0.024981 0 )
( 0.818712 -0.023569 0 )
( 0.830656 -0.022173 0 )
( 0.842274 -0.020795 0 )
( 0.853553 -0.019438 0 )
( 0.864484 -0.018106 0 )
( 0.875056 -0.0168 0 )
( 0.885257 -0.015523 0 )
( 0.895078 -0.01428 0 )
( 0.904508 -0.013071 0 )
( 0.91354 -0.0119 0 )
( 0.922164 -0.01077 0 )
( 0.930371 -0.009684 0 )
( 0.938153 -0.008643 0 )
( 0.945503 -0.007651 0 )
( 0.952414 -0.00671 0 )
( 0.958877 -0.005822 0 )
( 0.964888 -0.00499 0 )
( 0.97044 -0.004216 0 )
( 0.975528 -0.003501 0 )
( 0.980147 -0.002849 0 )
( 0.984292 -0.00226 0 )
( 0.987958 -0.001737 0 )
( 0.991144 -0.00128 0 )
( 0.993844 -0.000891 0 )
( 0.996057 -0.000572 0 )
( 0.997781 -0.000322 0 )
( 0.999013 -0.000143 0 )
( 0.999753 -0.000036 0 )
)
//JD395 Aerofoil Meshing 
spline 35 31
(
//( 0.259123 -0.059614 $zmax )
( 0.273005 -0.059841 $zmax )
( 0.28711 -0.059971 $zmax )
( 0.301426 -0.060006 $zmax )
( 0.315938 -0.059947 $zmax )
( 0.330631 -0.059797 $zmax )
( 0.345492 -0.059557 $zmax )
( 0.360504 -0.05923 $zmax )
( 0.375655 -0.058819 $zmax )
( 0.390928 -0.058326 $zmax )
( 0.406309 -0.057755 $zmax )
( 0.421783 -0.057108 $zmax )
( 0.437333 -0.05639 $zmax )
( 0.452946 -0.055602 $zmax )
( 0.468605 -0.054749 $zmax )
( 0.484295 -0.053835 $zmax )
( 0.5 -0.052862 $zmax )
( 0.515705 -0.051833 $zmax )
( 0.531395 -0.050754 $zmax )
( 0.547054 -0.049626 $zmax )
( 0.562667 -0.048455 $zmax )
( 0.578217 -0.047242 $zmax )
( 0.593691 -0.045992 $zmax )
( 0.609072 -0.044708 $zmax )
( 0.624345 -0.043394 $zmax )
( 0.639496 -0.042052 $zmax )
( 0.654508 -0.040686 $zmax )
( 0.669369 -0.0393 $zmax )
( 0.684062 -0.037896 $zmax )
( 0.698574 -0.036478 $zmax )
( 0.71289 -0.035048 $zmax )
( 0.726995 -0.03361 $zmax )
( 0.740877 -0.032168 $zmax )
( 0.754521 -0.030723 $zmax )
( 0.767913 -0.029279 $zmax )
( 0.781042 -0.027838 $zmax )
( 0.793893 -0.026405 $zmax )
( 0.806454 -0.024981 $zmax )
( 0.818712 -0.023569 $zmax )
( 0.830656 -0.022173 $zmax )
( 0.842274 -0.020795 $zmax )
( 0.853553 -0.019438 $zmax )
( 0.864484 -0.018106 $zmax )
( 0.875056 -0.0168 $zmax )
( 0.885257 -0.015523 $zmax )
( 0.895078 -0.01428 $zmax )
( 0.904508 -0.013071 $zmax )
( 0.91354 -0.0119 $zmax )
( 0.922164 -0.01077 $zmax )
( 0.930371 -0.009684 $zmax )
( 0.938153 -0.008643 $zmax )
( 0.945503 -0.007651 $zmax )
( 0.952414 -0.00671 $zmax )
( 0.958877 -0.005822 $zmax )
( 0.964888 -0.00499 $zmax )
( 0.97044 -0.004216 $zmax )
( 0.975528 -0.003501 $zmax )
( 0.980147 -0.002849 $zmax )
( 0.984292 -0.00226 $zmax )
( 0.987958 -0.001737 $zmax )
( 0.991144 -0.00128 $zmax )
( 0.993844 -0.000891 $zmax )
( 0.996057 -0.000572 $zmax )
( 0.997781 -0.000322 $zmax )
( 0.999013 -0.000143 $zmax )
( 0.999753 -0.000036 $zmax )
//( 1 0 $zmax )
)
); 

// Boundary condition
boundary 
( 
    inlet
    {
    	type patch;
    	inGroups (freestream); 
    	faces
    	(
    	  (4 23 24 5)
          (5 24 25 6)
          (6 25 26 7)
          (2 21 20 1)
          (3 22 21 2)
          (4 23 22 3)
    	);
    }
    
    outlet
    {
    	type patch;
    	inGroups (freestream); 
    	faces
    	(
    	   (27 8 7 26)
          (28 9 8 27)
          (29 10 9 28)
          (20 1 10 29)
    	);
    }
    //JD395 Aerofoil Meshing 
    aerofoil
    {
        type wall;
        faces
        (
          (15 34 31 12)
          (19 34 15 0)
          (0 19 35 16)
          (16 35 31 12)
         );
     }
     
     back
    	{
        //type empty;
        type cyclic;
        neighbourPatch front;
        faces
        (
          (1 2 13 10) //0
          (2 3 17 13) //1
          (3 4 18 17) //2
          
          (18 4 5 14) //3
          (11 14 5 6) //4
          (8 11 6 7) //5
          
          (12 11 8 9) //6
          (12 15 14 11) //7
          (0 18 14 15) //8
          (17 18 0 16) //9
          (13 17 16 12) //10
          (13 12 9 10) //11
         );
     	}
     	
     	front
     	{
     	//type empty;
     	type cyclic;
     	neighbourPatch back;
     	faces
     	(
     	 (20 21 32 29) //0
          (21 22 36 32) //1
          (22 23 37 36) //2
          
          (37 23 24 33) //3
          (30 33 24 25) //4
          (27 30 25 26) //5
          
          (31 30 27 28) //6
          (31 34 33 30) //7
          (19 37 33 34) //8
          (36 37 19 35) //9
          (32 36 35 31) //10
          (32 31 28 29) //11
        );
        } 
); 
 //JD395 Aerofoil Meshing 
mergePatchPairs 
( 
); 
 
// ************************************************************************* // 
